<!-- vehicles: 80 -->
<routes>

    <route id="loop_outer_cw"  edges="e_out_top e_out_right e_out_bot e_out_left" repeat="40"/>
    <route id="loop_inner_ccw" edges="e_in_top e_in_left e_in_bot e_in_right" repeat="40"/>

    <vType id="Type2" accel="2.20" decel="4.50" emergencyDecel="7.50" minGap="2.50" speedDev="0.10" speedFactor="1.00" maxSpeed="38.89" length="4.80" width="2.00" height="1.60" vClass="passenger" color="0.1,0.4,1.0"/>

    <vehicle id="veh1" type="Type2" depart="0.06" route="loop_outer_cw" departLane="best" departSpeed="max"/>
    <vehicle id="veh41" type="Type2" depart="0.09" route="loop_inner_ccw" departLane="best" departSpeed="max"/>
    <vehicle id="veh2" type="Type2" depart="0.12" route="loop_outer_cw" departLane="best" departSpeed="max"/>
    <vehicle id="veh42" type="Type2" depart="0.16" route="loop_inner_ccw" departLane="best" departSpeed="max"/>
    <vehicle id="veh3" type="Type2" depart="0.19" route="loop_outer_cw" departLane="best" departSpeed="max"/>
    <vehicle id="veh43" type="Type2" depart="0.22" route="loop_inner_ccw" departLane="best" departSpeed="max"/>
    <vehicle id="veh4" type="Type2" depart="0.25" route="loop_outer_cw" departLane="best" departSpeed="max"/>
    <vehicle id="veh44" type="Type2" depart="0.28" route="loop_inner_ccw" departLane="best" departSpeed="max"/>
    <vehicle id="veh5" type="Type2" depart="0.31" route="loop_outer_cw" departLane="best" departSpeed="max"/>
    <vehicle id="veh45" type="Type2" depart="0.34" route="loop_inner_ccw" departLane="best" departSpeed="max"/>
    <vehicle id="veh6" type="Type2" depart="0.38" route="loop_outer_cw" departLane="best" departSpeed="max"/>
    <vehicle id="veh46" type="Type2" depart="0.41" route="loop_inner_ccw" departLane="best" departSpeed="max"/>
    <vehicle id="veh7" type="Type2" depart="0.44" route="loop_outer_cw" departLane="best" departSpeed="max"/>
    <vehicle id="veh47" type="Type2" depart="0.47" route="loop_inner_ccw" departLane="best" departSpeed="max"/>
    <vehicle id="veh8" type="Type2" depart="0.50" route="loop_outer_cw" departLane="best" departSpeed="max"/>
    <vehicle id="veh48" type="Type2" depart="0.53" route="loop_inner_ccw" departLane="best" departSpeed="max"/>
    <vehicle id="veh9" type="Type2" depart="0.56" route="loop_outer_cw" departLane="best" departSpeed="max"/>
    <vehicle id="veh49" type="Type2" depart="0.59" route="loop_inner_ccw" departLane="best" departSpeed="max"/>
    <vehicle id="veh10" type="Type2" depart="0.62" route="loop_outer_cw" departLane="best" departSpeed="max"/>
    <vehicle id="veh50" type="Type2" depart="0.66" route="loop_inner_ccw" departLane="best" departSpeed="max"/>
    <vehicle id="veh11" type="Type2" depart="0.69" route="loop_outer_cw" departLane="best" departSpeed="max"/>
    <vehicle id="veh51" type="Type2" depart="0.72" route="loop_inner_ccw" departLane="best" departSpeed="max"/>
    <vehicle id="veh12" type="Type2" depart="0.75" route="loop_outer_cw" departLane="best" departSpeed="max"/>
    <vehicle id="veh52" type="Type2" depart="0.78" route="loop_inner_ccw" departLane="best" departSpeed="max"/>
    <vehicle id="veh13" type="Type2" depart="0.81" route="loop_outer_cw" departLane="best" departSpeed="max"/>
    <vehicle id="veh53" type="Type2" depart="0.84" route="loop_inner_ccw" departLane="best" departSpeed="max"/>
    <vehicle id="veh14" type="Type2" depart="0.88" route="loop_outer_cw" departLane="best" departSpeed="max"/>
    <vehicle id="veh54" type="Type2" depart="0.91" route="loop_inner_ccw" departLane="best" departSpeed="max"/>
    <vehicle id="veh15" type="Type2" depart="0.94" route="loop_outer_cw" departLane="best" departSpeed="max"/>
    <vehicle id="veh55" type="Type2" depart="0.97" route="loop_inner_ccw" departLane="best" departSpeed="max"/>
    <vehicle id="veh16" type="Type2" depart="1.00" route="loop_outer_cw" departLane="best" departSpeed="max"/>
    <vehicle id="veh56" type="Type2" depart="1.03" route="loop_inner_ccw" departLane="best" departSpeed="max"/>
    <vehicle id="veh17" type="Type2" depart="1.06" route="loop_outer_cw" departLane="best" departSpeed="max"/>
    <vehicle id="veh57" type="Type2" depart="1.09" route="loop_inner_ccw" departLane="best" departSpeed="max"/>
    <vehicle id="veh18" type="Type2" depart="1.12" route="loop_outer_cw" departLane="best" departSpeed="max"/>
    <vehicle id="veh58" type="Type2" depart="1.16" route="loop_inner_ccw" departLane="best" departSpeed="max"/>
    <vehicle id="veh19" type="Type2" depart="1.19" route="loop_outer_cw" departLane="best" departSpeed="max"/>
    <vehicle id="veh59" type="Type2" depart="1.22" route="loop_inner_ccw" departLane="best" departSpeed="max"/>
    <vehicle id="veh20" type="Type2" depart="1.25" route="loop_outer_cw" departLane="best" departSpeed="max"/>
    <vehicle id="veh60" type="Type2" depart="1.28" route="loop_inner_ccw" departLane="best" departSpeed="max"/>
    <vehicle id="veh21" type="Type2" depart="1.31" route="loop_outer_cw" departLane="best" departSpeed="max"/>
    <vehicle id="veh61" type="Type2" depart="1.34" route="loop_inner_ccw" departLane="best" departSpeed="max"/>
    <vehicle id="veh22" type="Type2" depart="1.38" route="loop_outer_cw" departLane="best" departSpeed="max"/>
    <vehicle id="veh62" type="Type2" depart="1.41" route="loop_inner_ccw" departLane="best" departSpeed="max"/>
    <vehicle id="veh23" type="Type2" depart="1.44" route="loop_outer_cw" departLane="best" departSpeed="max"/>
    <vehicle id="veh63" type="Type2" depart="1.47" route="loop_inner_ccw" departLane="best" departSpeed="max"/>
    <vehicle id="veh24" type="Type2" depart="1.50" route="loop_outer_cw" departLane="best" departSpeed="max"/>
    <vehicle id="veh64" type="Type2" depart="1.53" route="loop_inner_ccw" departLane="best" departSpeed="max"/>
    <vehicle id="veh25" type="Type2" depart="1.56" route="loop_outer_cw" departLane="best" departSpeed="max"/>
    <vehicle id="veh65" type="Type2" depart="1.59" route="loop_inner_ccw" departLane="best" departSpeed="max"/>
    <vehicle id="veh26" type="Type2" depart="1.62" route="loop_outer_cw" departLane="best" departSpeed="max"/>
    <vehicle id="veh66" type="Type2" depart="1.66" route="loop_inner_ccw" departLane="best" departSpeed="max"/>
    <vehicle id="veh27" type="Type2" depart="1.69" route="loop_outer_cw" departLane="best" departSpeed="max"/>
    <vehicle id="veh67" type="Type2" depart="1.72" route="loop_inner_ccw" departLane="best" departSpeed="max"/>
    <vehicle id="veh28" type="Type2" depart="1.75" route="loop_outer_cw" departLane="best" departSpeed="max"/>
    <vehicle id="veh68" type="Type2" depart="1.78" route="loop_inner_ccw" departLane="best" departSpeed="max"/>
    <vehicle id="veh29" type="Type2" depart="1.81" route="loop_outer_cw" departLane="best" departSpeed="max"/>
    <vehicle id="veh69" type="Type2" depart="1.84" route="loop_inner_ccw" departLane="best" departSpeed="max"/>
    <vehicle id="veh30" type="Type2" depart="1.88" route="loop_outer_cw" departLane="best" departSpeed="max"/>
    <vehicle id="veh70" type="Type2" depart="1.91" route="loop_inner_ccw" departLane="best" departSpeed="max"/>
    <vehicle id="veh31" type="Type2" depart="1.94" route="loop_outer_cw" departLane="best" departSpeed="max"/>
    <vehicle id="veh71" type="Type2" depart="1.97" route="loop_inner_ccw" departLane="best" departSpeed="max"/>
    <vehicle id="veh32" type="Type2" depart="2.00" route="loop_outer_cw" departLane="best" departSpeed="max"/>
    <vehicle id="veh72" type="Type2" depart="2.03" route="loop_inner_ccw" departLane="best" departSpeed="max"/>
    <vehicle id="veh33" type="Type2" depart="2.06" route="loop_outer_cw" departLane="best" departSpeed="max"/>
    <vehicle id="veh73" type="Type2" depart="2.09" route="loop_inner_ccw" departLane="best" departSpeed="max"/>
    <vehicle id="veh34" type="Type2" depart="2.12" route="loop_outer_cw" departLane="best" departSpeed="max"/>
    <vehicle id="veh74" type="Type2" depart="2.16" route="loop_inner_ccw" departLane="best" departSpeed="max"/>
    <vehicle id="veh35" type="Type2" depart="2.19" route="loop_outer_cw" departLane="best" departSpeed="max"/>
    <vehicle id="veh75" type="Type2" depart="2.22" route="loop_inner_ccw" departLane="best" departSpeed="max"/>
    <vehicle id="veh36" type="Type2" depart="2.25" route="loop_outer_cw" departLane="best" departSpeed="max"/>
    <vehicle id="veh76" type="Type2" depart="2.28" route="loop_inner_ccw" departLane="best" departSpeed="max"/>
    <vehicle id="veh37" type="Type2" depart="2.31" route="loop_outer_cw" departLane="best" departSpeed="max"/>
    <vehicle id="veh77" type="Type2" depart="2.34" route="loop_inner_ccw" departLane="best" departSpeed="max"/>
    <vehicle id="veh38" type="Type2" depart="2.38" route="loop_outer_cw" departLane="best" departSpeed="max"/>
    <vehicle id="veh78" type="Type2" depart="2.41" route="loop_inner_ccw" departLane="best" departSpeed="max"/>
    <vehicle id="veh39" type="Type2" depart="2.44" route="loop_outer_cw" departLane="best" departSpeed="max"/>
    <vehicle id="veh79" type="Type2" depart="2.47" route="loop_inner_ccw" departLane="best" departSpeed="max"/>
    <vehicle id="veh40" type="Type2" depart="2.50" route="loop_outer_cw" departLane="best" departSpeed="max"/>
    <vehicle id="veh80" type="Type2" depart="2.53" route="loop_inner_ccw" departLane="best" departSpeed="max"/>
</routes>
