<?xml version="1.0" encoding="UTF-8"?>
<edges>
    <edge id="e_out_top" from="n_out_nw" to="n_out_ne" type="straight"/>
    <edge id="e_out_right" from="n_out_ne" to="n_out_se" type="arc" shape="150.00,120.00 165.66,118.97 181.06,115.91 195.92,110.87 210.00,103.92 223.05,95.20 234.85,84.85 245.20,73.05 253.92,60.00 260.87,45.92 265.91,31.06 268.97,15.66 270.00,0.00 268.97,-15.66 265.91,-31.06 260.87,-45.92 253.92,-60.00 245.20,-73.05 234.85,-84.85 223.05,-95.20 210.00,-103.92 195.92,-110.87 181.06,-115.91 165.66,-118.97 150.00,-120.00"/>
    <edge id="e_out_bot" from="n_out_se" to="n_out_sw" type="straight"/>
    <edge id="e_out_left" from="n_out_sw" to="n_out_nw" type="arc" shape="-150.00,-120.00 -165.66,-118.97 -181.06,-115.91 -195.92,-110.87 -210.00,-103.92 -223.05,-95.20 -234.85,-84.85 -245.20,-73.05 -253.92,-60.00 -260.87,-45.92 -265.91,-31.06 -268.97,-15.66 -270.00,-0.00 -268.97,15.66 -265.91,31.06 -260.87,45.92 -253.92,60.00 -245.20,73.05 -234.85,84.85 -223.05,95.20 -210.00,103.92 -195.92,110.87 -181.06,115.91 -165.66,118.97 -150.00,120.00"/>
    <edge id="e_in_top" from="n_in_ne" to="n_in_nw" type="straight"/>
    <edge id="e_in_left" from="n_in_nw" to="n_in_sw" type="arc" shape="-150.00,90.00 -161.75,89.23 -173.29,86.93 -184.44,83.15 -195.00,77.94 -204.79,71.40 -213.64,63.64 -221.40,54.79 -227.94,45.00 -233.15,34.44 -236.93,23.29 -239.23,11.75 -240.00,0.00 -239.23,-11.75 -236.93,-23.29 -233.15,-34.44 -227.94,-45.00 -221.40,-54.79 -213.64,-63.64 -204.79,-71.40 -195.00,-77.94 -184.44,-83.15 -173.29,-86.93 -161.75,-89.23 -150.00,-90.00"/>
    <edge id="e_in_bot" from="n_in_sw" to="n_in_se" type="straight"/>
    <edge id="e_in_right" from="n_in_se" to="n_in_ne" type="arc" shape="150.00,-90.00 161.75,-89.23 173.29,-86.93 184.44,-83.15 195.00,-77.94 204.79,-71.40 213.64,-63.64 221.40,-54.79 227.94,-45.00 233.15,-34.44 236.93,-23.29 239.23,-11.75 240.00,0.00 239.23,11.75 236.93,23.29 233.15,34.44 227.94,45.00 221.40,54.79 213.64,63.64 204.79,71.40 195.00,77.94 184.44,83.15 173.29,86.93 161.75,89.23 150.00,90.00"/>
</edges>
